%chk=C:\Users\rafae\documentos\Lab_Contempo_II\rotativo\NMR\data_base\fenilalanina_bmse000900_simulation_1\prueba.chk
# nmr=(giao,spinspin,mixed) hf/3-21g geom=connectivity

6140

0 1
 C                 -1.56820000   -3.03800000   -0.70600000
 C                 -0.16210000   -3.03410000   -0.70960000
 C                 -2.27350000   -1.82220000   -0.72380000
 C                  0.53780000   -1.81290000   -0.72580000
 C                 -1.57000000   -0.60390000   -0.74600000
 C                  0.57980000    0.71570000   -0.72270000
 C                 -0.15430000   -0.57800000   -0.74160000
 C                  0.86420000    1.25610000    0.71120000
 C                  1.60430000    2.50630000    0.78710000
 N                 -0.39860000    1.39120000    1.45800000
 O                  1.91510000    2.98090000    1.87520000
 O                  1.95930000    3.13540000   -0.19970000
 H                 -2.07820000   -3.92420000   -0.68940000
 H                  0.35050000   -3.91880000   -0.69730000
 H                 -3.29600000   -1.82300000   -0.71780000
 H                  1.56030000   -1.83570000   -0.72120000
 H                 -2.10600000    0.26730000   -0.75740000
 H                  1.52880000    0.60320000   -1.25640000
 H                  0.02270000    1.46590000   -1.29260000
 H                  1.46010000    0.50300000    1.23480000
 H                 -0.18090000    1.70930000    2.40470000
 H                 -0.95810000    2.11860000    1.00760000
 H                  2.36310000    3.73780000    1.92900000

 1 2 2.0 3 1.0 13 1.0
 2 4 1.0 14 1.0
 3 5 2.0 15 1.0
 4 7 2.0 16 1.0
 5 7 1.0 17 1.0
 6 7 1.0 8 1.0 18 1.0 19 1.0
 7
 8 9 1.0 10 1.0 20 1.0
 9 11 1.0 12 2.0
 10 21 1.0 22 1.0
 11 23 1.0
 12
 13
 14
 15
 16
 17
 18
 19
 20
 21
 22
 23

